Circuit: * E:\PROJECTS\circuit_graph\CODE\circuit.asc

Direct Newton iteration for .op point succeeded.

Date: Sat Jun 19 19:50:37 2021
Total elapsed time: 0.340 seconds.

tnom = 27
temp = 27
method = modified trap
totiter = 2091
traniter = 2088
tranpoints = 1045
accept = 1045
rejected = 0
matrix size = 3
fillins = 0
solver = Normal
Matrix Compiler1: 50 bytes object code size  0.1/0.1/[0.1]
Matrix Compiler2:      15 opcodes  0.2/[0.1]/0.2

