Circuit: * E:\PROJECTS\circuit_graph\CODE\circuit2.asc

Direct Newton iteration for .op point succeeded.

Date: Sun Jun 20 23:53:46 2021
Total elapsed time: 0.344 seconds.

tnom = 27
temp = 27
method = modified trap
totiter = 2091
traniter = 2088
tranpoints = 1045
accept = 1045
rejected = 0
matrix size = 4
fillins = 0
solver = Normal
Matrix Compiler1: 100 bytes object code size  0.3/0.2/[0.2]
Matrix Compiler2: 248 bytes object code size  2.0/0.3/[0.3]

